/*--------------------------------*- C++ -*----------------------------------*\
| =========                 |                                                 |
| \\      /  F ield         | OpenFOAM: The Open Source CFD Toolbox           |
|  \\    /   O peration     | Version:  v2206                                 |
|   \\  /    A nd           | Website:  www.openfoam.com                      |
|    \\/     M anipulation  |                                                 |
\*---------------------------------------------------------------------------*/
FoamFile
{
    version     2.0;
    format      ascii;
    class       dictionary;
    object      blockMeshDict;
}
// * * * * * * * * * * * * * * * * * * * * * * * * * * * * * * * * * * * * * //

backgroundMesh
{
    xMin    -1.898465;
    xMax    1.898465;
    yMin    -0.053166;
    yMax    45.791596;
    zMin    0;
    zMax    245;
    zCells  1000;
    xCells  #calc "round($zCells * (($xMax - $xMin)/($zMax - $zMin)))";
    yCells  #calc "round($zCells * (($yMax - $yMin)/($zMax - $zMin)))";
}

scale   0.001;

vertices
(
    ($:backgroundMesh.xMin $:backgroundMesh.yMin $:backgroundMesh.zMin) // 0
    ($:backgroundMesh.xMax $:backgroundMesh.yMin $:backgroundMesh.zMin) // 1
    ($:backgroundMesh.xMax $:backgroundMesh.yMax $:backgroundMesh.zMin) // 2
    ($:backgroundMesh.xMin $:backgroundMesh.yMax $:backgroundMesh.zMin) // 3

    ($:backgroundMesh.xMin $:backgroundMesh.yMin $:backgroundMesh.zMax) // 4
    ($:backgroundMesh.xMax $:backgroundMesh.yMin $:backgroundMesh.zMax) // 5
    ($:backgroundMesh.xMax $:backgroundMesh.yMax $:backgroundMesh.zMax) // 6
    ($:backgroundMesh.xMin $:backgroundMesh.yMax $:backgroundMesh.zMax) // 7
/*
    (-1.898465 -0.053166 0) // 0
    (1.898465 -0.053166 0) // 1
    (5.416785 45.791596 0) // 2
    (-5.416785 45.791596 0) // 3

    (-1.898465 -0.053166 245) // 4
    (1.898465 -0.053166 245) // 5
    (5.416785 45.791596 245) // 6
    (-5.416785 45.791596 245) // 7
    
*/
);

blocks
(
    hex (0 1 2 3 4 5 6 7)
    (
        $:backgroundMesh.xCells
        $:backgroundMesh.yCells
        $:backgroundMesh.zCells
    )
    simpleGrading (1 1 1)
);

edges
(
    arc 0 1 (0 0.02 0)
    arc 2 3 (0 46 0)
    arc 4 5 (0 0.02 245)
    arc 6 7 (0 46 245)
);

boundary
(
//  Uncomment below to define patches in background mesh
/*
    left
    {
        type patch;
        faces
        (
            (0 3 7 4)
        );
    }

    right
    {
        type patch;
        faces
        (
            (1 5 6 2)
        );
    }

    inlet
    {
        type patch;
        faces
        (
            (0 1 2 3)
        );
    }

    outlet
    {
        type patch;
        faces
        (
            (4 7 6 5)
        );
    }
    back
    {
        type patch;
        faces
        (
            (0 4 5 1)
        );
    }

    front
    {
        type patch;
        faces
        (
            (3 2 6 7)
        );
    }
*/
);

mergePatchPairs
(
);

// ************************************************************************* //
