/*--------------------------------*- C++ -*----------------------------------*\
| =========                 |                                                 |
| \\      /  F ield         | OpenFOAM: The Open Source CFD Toolbox           |
|  \\    /   O peration     | Version:  v2206                                 |
|   \\  /    A nd           | Website:  www.openfoam.com                      |
|    \\/     M anipulation  |                                                 |
\*---------------------------------------------------------------------------*/
FoamFile
{
    version     2.0;
    format      ascii;
    class       dictionary;
    object      fvSolution;
}
// * * * * * * * * * * * * * * * * * * * * * * * * * * * * * * * * * * * * * //

solvers
{
     p
    {
        solver          GAMG;
        preconditioner  DIC;
        tolerance       1e-06;
        relTol          0.001;
        smoother        GaussSeidel;
        directSolveCoarsest false;
        nPreSweeps      0;
        nPostSweeps     2;
        nFinestSweeps   2;
        cacheAgglomeration  on;
        agglomerator    faceAreaPair;
        nCellsCoarsestLevel 256;
        mergeLevels     2;
    }

    "(U|k|omega|epsilon)"
    {
        solver          PBiCG;
        preconditioner  DILU;
        smoother        GaussSeidel;
        tolerance       1e-08;
        relTol          0;
    }

    pFinal
    {
        $p;
        relTol         0;
    }

    "(U|k|omega|epsilon)Final"
    {
        $U;
        relTol          0;
    }
}

"(PIMPLE|PISO)"
{
    nOuterCorrectors 1;
    nCorrectors     2;
    nNonOrthogonalCorrectors 1;
    pRefCell        0;
    pRefValue       0;
}

SIMPLE
{
    residualControl
    {
        p               1e-6;
        U               1e-6;
        "(k|omega|epsilon)" 1e-6;
    }
    nNonOrthogonalCorrectors 10;
    pRefCell        0;
    pRefValue       0;

}

potentialFlow
{
    nNonOrthogonalCorrectors 10;
}

relaxationFactors
{
    fields
    {
        p               0.2;
    }
    equations
    {
        U               0.5;
        "(k|omega|epsilon)" 0.5;
    }
}

// ************************************************************************* //
