/*--------------------------------*- C++ -*----------------------------------*\
| =========                 |                                                 |
| \\      /  F ield         | OpenFOAM: The Open Source CFD Toolbox           |
|  \\    /   O peration     | Version:  2206                                  |
|   \\  /    A nd           | Website:  www.openfoam.com                      |
|    \\/     M anipulation  |                                                 |
\*---------------------------------------------------------------------------*/
FoamFile
{
    version     2.0;
    format      ascii;
    arch        "LSB;label=32;scalar=64";
    class       polyBoundaryMesh;
    location    "constant/polyMesh";
    object      boundary;
}
// * * * * * * * * * * * * * * * * * * * * * * * * * * * * * * * * * * * * * //

5
(
    inlet
    {
        type            patch;
        nFaces          0;
        startFace       107471;
    }
    outlet
    {
        type            patch;
        nFaces          0;
        startFace       107471;
    }
    internal
    {
        type            wall;
        inGroups        1(wall);
        nFaces          12866;
        startFace       107471;
    }
    procBoundary0to1
    {
        type            processor;
        inGroups        1(processor);
        nFaces          281;
        startFace       120337;
        matchTolerance  0.0001;
        transform       unknown;
        myProcNo        0;
        neighbProcNo    1;
    }
    procBoundary0to5
    {
        type            processor;
        inGroups        1(processor);
        nFaces          299;
        startFace       120618;
        matchTolerance  0.0001;
        transform       unknown;
        myProcNo        0;
        neighbProcNo    5;
    }
)

// ************************************************************************* //
