/*--------------------------------*- C++ -*----------------------------------*\
| =========                 |                                                 |
| \\      /  F ield         | OpenFOAM: The Open Source CFD Toolbox           |
|  \\    /   O peration     | Version:  2206                                  |
|   \\  /    A nd           | Website:  www.openfoam.com                      |
|    \\/     M anipulation  |                                                 |
\*---------------------------------------------------------------------------*/
FoamFile
{
    version     2.0;
    format      ascii;
    arch        "LSB;label=32;scalar=64";
    class       extendedFeatureEdgeMesh;
    location    "constant/extendedFeatureEdgeMesh";
    object      internal.extendedFeatureEdgeMesh;
}
// * * * * * * * * * * * * * * * * * * * * * * * * * * * * * * * * * * * * * //

// points

110
(
(0.00074088451 0.066355228 0.27500001)
(0.00031726059 0.06599924 0.27500001)
(0.01048796 0.065161362 0.27500001)
(0.01031129 0.065393344 0.27500001)
(0.00049842859 0.064810261 0.27500001)
(0.0003048779 0.064999282 0.27500001)
(0.00070947129 0.064642973 0.27500001)
(0.01033653 0.064172857 0.27500001)
(0.0100948 0.064005271 0.27500001)
(0.001066343 0.045323599 0.029999999)
(0.0023953251 0.045272838 0.029999999)
(0.0037222451 0.0451831 0.029999999)
(0.005045963 0.04505448 0.029999999)
(0.006365336 0.044887081 0.030000011)
(0.0064162351 0.044876799 0.029999999)
(0.0064656301 0.04486078 0.029999999)
(0.006512892 0.044839311 0.029999999)
(0.0065575088 0.044812739 0.029999999)
(0.0065988512 0.04478161 0.029999999)
(0.0066366368 0.044746298 0.029999999)
(0.006670665 0.044707172 0.029999999)
(0.0067006699 0.044664681 0.029999999)
(0.0067263138 0.044619542 0.029999999)
(0.0067475461 0.044572171 0.029999999)
(0.006764337 0.04452296 0.029999999)
(0.0067766551 0.044472311 0.029999999)
(0.0067877718 0.044368621 0.029999999)
(0.0067809429 0.044264659 0.029999999)
(0.006427736 0.041958991 0.029999999)
(0.006403435 0.04185655 0.029999999)
(0.0059036319 0.041461959 0.029999999)
(0.0058515952 0.041466098 0.029999999)
(0.0059556989 0.041464049 0.029999999)
(0.0060073012 0.04147223 0.029999999)
(0.0060577379 0.04148623 0.029999999)
(0.0061061941 0.041505668 0.029999999)
(0.0061523588 0.041530188 0.029999999)
(0.0061959228 0.04155945 0.029999999)
(0.0062363511 0.04159287 0.029999999)
(0.0062734 0.041629981 0.029999999)
(0.006306943 0.041670371 0.029999999)
(0.0063629611 0.041759402 0.029999999)
(0.0097050248 0.065788008 0.27500001)
(0.0075863702 0.066065863 0.27500001)
(0.0054598809 0.066275477 0.27500001)
(0.003327756 0.066416681 0.27500001)
(0.001192195 0.066489317 0.27500001)
(0.0010909369 0.066483557 0.27500001)
(0.00052890892 0.066198662 0.27500001)
(0.0009783695 0.066460319 0.27500001)
(0.00085735059 0.066416241 0.27500001)
(0.0003401369 0.066021651 0.27500001)
(0.010469 0.06518729 0.27500001)
(0.01012787 0.06558226 0.27500001)
(0.01002304 0.065661371 0.27500001)
(0.0099109877 0.065724529 0.27500001)
(0.0098038707 0.065765813 0.27500001)
(0.00055450149 0.04477758 0.029999999)
(0.00056478521 0.044881329 0.029999999)
(0.001014575 0.045321818 0.029999999)
(0.00096342748 0.045314152 0.029999999)
(0.00091336871 0.045300771 0.029999999)
(0.0008649847 0.045281898 0.029999999)
(0.00081906648 0.045257978 0.029999999)
(0.00077592803 0.045229319 0.029999999)
(0.00059271482 0.044981752 0.029999999)
(0.00061316951 0.04502973 0.029999999)
(0.00063784473 0.045075621 0.029999999)
(0.00066658761 0.045118921 0.029999999)
(0.00069928978 0.045159239 0.029999999)
(0.00073584361 0.045196231 0.029999999)
(0.0052956739 0.064282238 0.27500001)
(0.0073554739 0.064079218 0.27500001)
(0.0032304211 0.064419053 0.27500001)
(0.001161841 0.064489543 0.27500001)
(0.0094077 0.063810229 0.27500001)
(0.001060899 0.064498886 0.27500001)
(0.00094773312 0.06452658 0.27500001)
(0.00082585571 0.064576238 0.27500001)
(0.00030710571 0.064997062 0.27500001)
(0.01031064 0.064154342 0.27500001)
(0.0095056137 0.06380295 0.27500001)
(0.0096177356 0.063810691 0.27500001)
(0.0097419601 0.063837416 0.27500001)
(0.0098645277 0.063881263 0.27500001)
(0.0046468731 0.041618329 0.029999999)
(0.003438242 0.04173556 0.029999999)
(0.0022267201 0.04181771 0.029999999)
(0.001013328 0.041864689 0.029999999)
(0.00096120627 0.04186913 0.029999999)
(0.0009099638 0.041879792 0.029999999)
(0.00086033851 0.041896362 0.029999999)
(0.000812907 0.041918471 0.029999999)
(0.00076833449 0.041945599 0.029999999)
(0.00072688452 0.041977331 0.029999999)
(0.00068877707 0.04201328 0.029999999)
(0.00065439311 0.042052861 0.029999999)
(0.00062395958 0.042095479 0.029999999)
(0.00059752801 0.042140771 0.029999999)
(0.00055687828 0.042237651 0.029999999)
(0.0005328228 0.042340219 0.029999999)
(0.00052561873 0.042445209 0.029999999)
(0.00090544199 0.033217032 0.042272821)
(0.0008869645 0.031746499 0.04422421)
(0.0009242341 0.034714092 0.040286198)
(0.0009624667 0.03776478 0.036237858)
(0.00076996139 0.066370733 0.2749978)
(0.01017366 0.065532267 0.27499181)
(0.00066175708 0.064679429 0.27499631)
(0.0099268807 0.063916527 0.27499241)
)

// edges

111
(
(102 103)
(104 102)
(105 104)
(0 106)
(107 3)
(108 4)
(6 108)
(8 109)
(105 103)
(9 10)
(10 11)
(11 12)
(12 13)
(13 14)
(14 15)
(15 16)
(16 17)
(17 18)
(18 19)
(19 20)
(20 21)
(21 22)
(22 23)
(23 24)
(24 25)
(25 26)
(26 27)
(27 28)
(28 29)
(30 31)
(32 30)
(33 32)
(34 33)
(35 34)
(36 35)
(37 36)
(38 37)
(39 38)
(40 39)
(29 41)
(41 40)
(42 43)
(43 44)
(44 45)
(45 46)
(46 47)
(0 48)
(47 49)
(49 50)
(50 0)
(48 51)
(51 1)
(2 52)
(52 3)
(3 53)
(53 54)
(54 55)
(55 56)
(56 42)
(57 58)
(59 9)
(60 59)
(61 60)
(62 61)
(63 62)
(64 63)
(58 65)
(65 66)
(66 67)
(67 68)
(68 69)
(69 70)
(70 64)
(71 72)
(73 71)
(74 73)
(72 75)
(76 74)
(77 76)
(78 77)
(79 4)
(5 79)
(4 6)
(6 78)
(80 7)
(75 81)
(81 82)
(82 83)
(83 84)
(84 8)
(8 80)
(31 85)
(85 86)
(86 87)
(87 88)
(88 89)
(89 90)
(90 91)
(91 92)
(92 93)
(93 94)
(94 95)
(95 96)
(96 97)
(97 98)
(98 99)
(100 101)
(99 100)
(101 57)
(1 5)
(7 2)
)

// concaveStart mixedStart nonFeatureStart
0 0 9
// internalStart flatStart openStart multipleStart
3 9 9 111
// normals

113
(
(-0.034394787 -0.90049899 -0.43349575)
(-0.060825359 -0.89939513 -0.43288414)
(-0.087198044 -0.8974201 -0.43247389)
(-0.11332351 -0.89319694 -0.4351517)
(-0.17849217 -0.88313745 -0.43383037)
(-0.27858445 -0.85903622 -0.42947348)
(-0.37519847 -0.82596724 -0.42071871)
(-0.46724375 -0.78453128 -0.40766891)
(-0.55372684 -0.73541432 -0.39057953)
(-0.63445091 -0.67889393 -0.36956066)
(-0.70823467 -0.61594602 -0.34498427)
(-0.77471484 -0.5470668 -0.31707228)
(-0.83309659 -0.47328783 -0.28626682)
(-0.88285178 -0.39570728 -0.25295946)
(-0.92374642 -0.31518214 -0.2176069)
(-0.9557095 -0.23243402 -0.18053746)
(-0.98697532 -0.10581511 -0.12117294)
(-0.99705176 0.065493263 -0.039980324)
(-0.98846887 0.15142424 7.7847639e-07)
(-0.97185535 0.23054131 0.048454945)
(0.068464723 0.86080061 0.50431626)
(-0.034769201 0.86623187 0.49843098)
(-0.13673532 0.8624957 0.48724185)
(-0.23591002 0.84991637 0.4711567)
(-0.3324373 0.82869617 0.45027559)
(-0.42458406 0.79938496 0.42510242)
(-0.5120516 0.76231641 0.39582427)
(-0.59368081 0.71818602 0.36297651)
(-0.66879576 0.66767125 0.32699746)
(-0.73658109 0.61172 0.28852544)
(-0.91396808 0.38077769 0.14025225)
(-0.82413542 0.51854598 0.22783958)
(-0.13002921 -0.99147926 -0.0078279101)
(-0.098097657 -0.99517679 -8.8397622e-05)
(-0.06608185 -0.9978142 -8.8895788e-05)
(-0.03399179 -0.9993919 -0.0077705309)
(0.056737214 -0.99753453 -0.041300632)
(0.47985411 -0.64967512 0.58962892)
(0.1995531 -0.96664232 0.16056522)
(0.34219779 -0.93953323 0.013341203)
(0.46129803 -0.88056226 -0.10869333)
(0.2529246 -0.26972965 0.92912597)
(0.049338541 -0.050362156 0.99751158)
(-0.056912634 -0.041617363 0.99751138)
(-0.33593106 -0.25711675 0.90611329)
(-0.6975519 -0.67725272 0.2339874)
(-0.52425921 -0.6947064 0.49247873)
(-0.47770224 -0.8475101 0.23135945)
(-0.35958849 -0.93300916 0.013784942)
(-0.21905036 -0.9755333 -0.018754475)
(0.99432487 -0.098558324 -0.04005386)
(0.030975722 -0.90052353 -0.43370252)
(0.13387399 -0.89313155 -0.42941099)
(0.23427639 -0.87641983 -0.42071707)
(0.33180492 -0.85066662 -0.40776438)
(0.42526371 -0.81635784 -0.39078212)
(0.51410125 -0.77385106 -0.36993843)
(0.95629 -0.26596394 -0.12154267)
(0.90476363 -0.3857322 -0.18059193)
(0.85961435 -0.46219906 -0.21779625)
(0.80596804 -0.53501975 -0.25331679)
(0.74402539 -0.60347119 -0.28679042)
(0.67445929 -0.66646791 -0.31768725)
(0.59738182 -0.72369681 -0.34553998)
(0.098088087 0.99517773 0.0001125538)
(0.066101249 0.99781291 0.00011202544)
(0.034055745 0.99939132 0.007562181)
(0.12995613 0.99149054 0.0076104788)
(0.090348811 0.97612763 -0.19751441)
(0.23659444 0.96680161 0.096528287)
(0.37159068 0.91200615 0.17368119)
(0.20417329 0.20911574 0.95633879)
(0 -0 1)
(0.59665599 0.75271375 -0.27825106)
(0.43923596 0.76601984 0.46934569)
(-0.040246382 0.056280151 0.99760352)
(0.074130614 0.99714022 -0.01469832)
(-0.068846986 0.99717139 0.030154727)
(-0.20338273 0.94536542 0.25479343)
(-0.31229437 0.87297819 0.37467493)
(-0.4653597 0.86413709 0.19159185)
(-0.21456164 0.31066291 0.92598696)
(0.10793739 0.85419653 0.50862344)
(0.083413077 0.85997305 0.50347653)
(0.058436328 0.8617992 0.50387234)
(0.033404833 0.86278152 0.50447217)
(0.07330235 0.8603994 0.50432097)
(0.17660158 0.8487796 0.49838246)
(0.27659225 0.82835818 0.48715444)
(0.3727005 0.79955069 0.47097031)
(0.4642584 0.76280956 0.45009522)
(0.55027017 0.71879062 0.42490326)
(0.63019552 0.66803277 0.39570927)
(0.70348356 0.61111203 0.36284013)
(0.76906663 0.54919946 0.32698085)
(0.82700278 0.4826227 0.28834309)
(0.89796347 0.37677548 0.2273804)
(0.99648265 0.068375481 0.048447165)
(0.96407482 0.22610549 0.13941326)
(0.99992333 -0.012382484 -9.0919351e-09)
(0 -0 1)
(-0.048773584 0.0074716315 0.99878191)
(0.52686177 -0.68118215 -0.50833803)
(0.077929075 0.79584116 0.60046974)
(0.25441835 -0.77350494 -0.58048377)
(0.075809368 0.79598626 0.60054876)
(0.075284712 0.79602288 0.60056623)
(0.42528889 -0.71947041 0.54908259)
(-0.52426863 -0.47780362 0.70487312)
(0.47978588 0.58036964 0.65800957)
(0.47134185 0.67450575 0.56822431)
(-0.35433339 0.60974867 0.70898125)
(0.035443736 0.79796623 0.60165907)
)

// normal volume types

113
(
0
0
0
0
0
0
0
0
0
0
0
0
0
0
0
0
0
0
0
0
0
0
0
0
0
0
0
0
0
0
0
0
0
0
0
0
0
0
0
0
0
0
0
0
0
0
0
0
0
0
0
0
0
0
0
0
0
0
0
0
0
0
0
0
0
0
0
0
0
0
0
0
0
0
0
0
0
0
0
0
0
0
0
0
0
0
0
0
0
0
0
0
0
0
0
0
0
0
0
0
0
0
0
0
0
0
0
0
0
0
0
0
0
)

// normalDirections

111
(
2(1 -1)
2(1 -1)
2(1 -1)
2(1 -1)
2(1 -1)
2(1 -1)
2(1 -1)
2(1 -1)
2(1 -1)
1(1)
1(1)
1(1)
1(1)
1(1)
1(1)
1(1)
1(1)
1(1)
1(1)
1(1)
1(1)
1(1)
1(1)
1(1)
1(1)
1(1)
1(1)
1(1)
1(1)
1(1)
1(1)
1(1)
1(1)
1(1)
1(1)
1(1)
1(1)
1(1)
1(1)
1(1)
1(1)
1(1)
1(1)
1(1)
1(1)
1(1)
1(1)
1(1)
1(1)
1(1)
1(1)
1(1)
1(1)
1(1)
1(1)
1(1)
1(1)
1(1)
1(1)
1(1)
1(1)
1(1)
1(1)
1(1)
1(1)
1(1)
1(1)
1(1)
1(1)
1(1)
1(1)
1(1)
1(1)
1(1)
1(1)
1(1)
1(1)
1(1)
1(1)
1(1)
1(1)
1(1)
1(1)
1(1)
1(1)
1(1)
1(1)
1(1)
1(1)
1(1)
1(1)
1(1)
1(1)
1(1)
1(1)
1(1)
1(1)
1(1)
1(1)
1(1)
1(1)
1(1)
1(1)
1(1)
1(1)
1(1)
1(1)
1(1)
1(1)
1(1)
1(1)
)

// edgeNormals

111
(
2(102 103)
2(104 105)
2(104 106)
2(40 107)
2(45 108)
2(73 109)
2(73 110)
2(80 111)
2(112 102)
1(0)
1(1)
1(2)
1(3)
1(4)
1(5)
1(6)
1(7)
1(8)
1(9)
1(10)
1(11)
1(12)
1(13)
1(14)
1(15)
1(16)
1(17)
1(18)
1(19)
1(20)
1(21)
1(22)
1(23)
1(24)
1(25)
1(26)
1(27)
1(28)
1(29)
1(30)
1(31)
1(32)
1(33)
1(34)
1(35)
1(36)
1(37)
1(38)
1(39)
1(40)
1(41)
1(42)
1(43)
1(44)
1(45)
1(46)
1(47)
1(48)
1(49)
1(50)
1(51)
1(52)
1(53)
1(54)
1(55)
1(56)
1(57)
1(58)
1(59)
1(60)
1(61)
1(62)
1(63)
1(64)
1(65)
1(66)
1(67)
1(68)
1(69)
1(70)
1(71)
1(72)
1(73)
1(74)
1(75)
1(76)
1(77)
1(78)
1(79)
1(80)
1(81)
1(82)
1(83)
1(84)
1(85)
1(86)
1(87)
1(88)
1(89)
1(90)
1(91)
1(92)
1(93)
1(94)
1(95)
1(96)
1(97)
1(98)
1(99)
1(100)
1(101)
)

// featurePointNormals

9
(
3(40 107 37)
2(42 100)
2(43 101)
3(45 108 44)
3(73 109 71)
1(72)
3(73 110 74)
2(75 101)
3(80 111 81)
)

// featurePointEdges

9
(
3(3 46 49)
2(51 109)
2(52 110)
3(4 53 54)
3(5 80 82)
2(81 109)
3(6 82 83)
2(84 110)
3(7 89 90)
)

// regionEdges

102
(
9
10
11
12
13
14
15
16
17
18
19
20
21
22
23
24
25
26
27
28
29
30
31
32
33
34
35
36
37
38
39
40
41
42
43
44
45
46
47
48
49
50
51
52
53
54
55
56
57
58
59
60
61
62
63
64
65
66
67
68
69
70
71
72
73
74
75
76
77
78
79
80
81
82
83
84
85
86
87
88
89
90
91
92
93
94
95
96
97
98
99
100
101
102
103
104
105
106
107
108
109
110
)



// ************************************************************************* //
