/*--------------------------------*- C++ -*----------------------------------*\
| =========                 |                                                 |
| \\      /  F ield         | OpenFOAM: The Open Source CFD Toolbox           |
|  \\    /   O peration     | Version:  2206                                  |
|   \\  /    A nd           | Website:  www.openfoam.com                      |
|    \\/     M anipulation  |                                                 |
\*---------------------------------------------------------------------------*/
FoamFile
{
    version     2.0;
    format      ascii;
    arch        "LSB;label=32;scalar=64";
    class       featureEdgeMesh;
    location    "constant/triSurface";
    object      external.eMesh;
}
// * * * * * * * * * * * * * * * * * * * * * * * * * * * * * * * * * * * * * //


// points:

413
(
(7.1054269e-18 0.049985509 0.029999999)
(0 0.040167969 0.029999999)
(0.0087086242 0.049221039 0.029999999)
(0.0069981818 0.039553639 0.029999999)
(0.01001782 0.056620609 0.27500001)
(0.01228272 0.069421791 0.27500001)
(3.5208591e-18 0.057500001 0.27500001)
(0 0.070500001 0.27500001)
(0.01033653 0.064172857 0.27500001)
(0.00031726059 0.06599924 0.27500001)
(0.0003048779 0.064999282 0.27500001)
(0.01048796 0.065161362 0.27500001)
(0.00055450149 0.04477758 0.029999999)
(0.00052561873 0.042445209 0.029999999)
(0.0005328228 0.042340219 0.029999999)
(0.001066343 0.045323599 0.029999999)
(0.001014575 0.045321818 0.029999999)
(0.00096342748 0.045314152 0.029999999)
(0.0037222451 0.0451831 0.029999999)
(0.0023953251 0.045272838 0.029999999)
(0.005045963 0.04505448 0.029999999)
(0.006365336 0.044887081 0.030000011)
(0.0064162351 0.044876799 0.029999999)
(0.0064656301 0.04486078 0.029999999)
(0.006512892 0.044839311 0.029999999)
(0.0065575088 0.044812739 0.029999999)
(0.0065988512 0.04478161 0.029999999)
(0.0066366368 0.044746298 0.029999999)
(0.006670665 0.044707172 0.029999999)
(0.0067006699 0.044664681 0.029999999)
(0.0067263138 0.044619542 0.029999999)
(0.0067475461 0.044572171 0.029999999)
(0.006764337 0.04452296 0.029999999)
(0.0067766551 0.044472311 0.029999999)
(0.0067877718 0.044368621 0.029999999)
(0.0067809429 0.044264659 0.029999999)
(0.006427736 0.041958991 0.029999999)
(0.006403435 0.04185655 0.029999999)
(0.0063629611 0.041759402 0.029999999)
(0.006306943 0.041670371 0.029999999)
(0.0062734 0.041629981 0.029999999)
(0.0062363511 0.04159287 0.029999999)
(0.0061959228 0.04155945 0.029999999)
(0.0061523588 0.041530188 0.029999999)
(0.0061061941 0.041505668 0.029999999)
(0.0060577379 0.04148623 0.029999999)
(0.0060073012 0.04147223 0.029999999)
(0.0059556989 0.041464049 0.029999999)
(0.0059036319 0.041461959 0.029999999)
(0.0058515952 0.041466098 0.029999999)
(0.0046468731 0.041618329 0.029999999)
(0.003438242 0.04173556 0.029999999)
(0.0022267201 0.04181771 0.029999999)
(0.001013328 0.041864689 0.029999999)
(0.00096120627 0.04186913 0.029999999)
(0.0009099638 0.041879792 0.029999999)
(0.00086033851 0.041896362 0.029999999)
(0.000812907 0.041918471 0.029999999)
(0.00076833449 0.041945599 0.029999999)
(0.00072688452 0.041977331 0.029999999)
(0.00068877707 0.04201328 0.029999999)
(0.00065439311 0.042052861 0.029999999)
(0.00062395958 0.042095479 0.029999999)
(0.00059752801 0.042140771 0.029999999)
(0.00055687828 0.042237651 0.029999999)
(0.00091336871 0.045300771 0.029999999)
(0.0008649847 0.045281898 0.029999999)
(0.00081906648 0.045257978 0.029999999)
(0.00077592803 0.045229319 0.029999999)
(0.00073584361 0.045196231 0.029999999)
(0.00069928978 0.045159239 0.029999999)
(0.00066658761 0.045118921 0.029999999)
(0.00063784473 0.045075621 0.029999999)
(0.00061316951 0.04502973 0.029999999)
(0.00059271482 0.044981752 0.029999999)
(0.00056478521 0.044881329 0.029999999)
(0.01031064 0.064154342 0.27500001)
(0.0100948 0.064005271 0.27500001)
(0.0099109877 0.065724529 0.27500001)
(0.01002304 0.065661371 0.27500001)
(0.01012787 0.06558226 0.27500001)
(0.0075863702 0.066065863 0.27500001)
(0.0097050248 0.065788008 0.27500001)
(0.0098038707 0.065765813 0.27500001)
(0.0054598809 0.066275477 0.27500001)
(0.003327756 0.066416681 0.27500001)
(0.001192195 0.066489317 0.27500001)
(0.0010909369 0.066483557 0.27500001)
(0.0009783695 0.066460319 0.27500001)
(0.00085735059 0.066416241 0.27500001)
(0.00074088451 0.066355228 0.27500001)
(0.00052890892 0.066198662 0.27500001)
(0.0003401369 0.066021651 0.27500001)
(0.00030710571 0.064997062 0.27500001)
(0.00049842859 0.064810261 0.27500001)
(0.00070947129 0.064642973 0.27500001)
(0.00082585571 0.064576238 0.27500001)
(0.00094773312 0.06452658 0.27500001)
(0.001060899 0.064498886 0.27500001)
(0.001161841 0.064489543 0.27500001)
(0.0032304211 0.064419053 0.27500001)
(0.0052956739 0.064282238 0.27500001)
(0.0073554739 0.064079218 0.27500001)
(0.0094077 0.063810229 0.27500001)
(0.0095056137 0.06380295 0.27500001)
(0.0096177356 0.063810691 0.27500001)
(0.0097419601 0.063837416 0.27500001)
(0.0098645277 0.063881263 0.27500001)
(0.01031129 0.065393344 0.27500001)
(0.010469 0.06518729 0.27500001)
(0.0021876241 0.049937621 0.029999999)
(0.0043710568 0.049794029 0.029999999)
(0.0065461118 0.049555019 0.029999999)
(0.0052604042 0.03982202 0.029999999)
(0.0035125469 0.040014088 0.029999999)
(0.001757958 0.040129479 0.029999999)
(0.0086403936 0.048835412 0.03056119)
(0.0085790101 0.048488472 0.031147851)
(0.0068513728 0.038723879 0.03136842)
(0.0085247606 0.04818185 0.031757239)
(0.0066981772 0.037858021 0.032714251)
(0.0083788689 0.047357269 0.033485591)
(0.0065386659 0.03695647 0.034036752)
(0.0082252016 0.046488751 0.035191599)
(0.006372917 0.036019649 0.035335138)
(0.008063877 0.045576941 0.03687416)
(0.0078950096 0.044622511 0.03853216)
(0.0077187172 0.0436261 0.0401645)
(0.0075351149 0.04258839 0.041770071)
(0.0053244168 0.03009354 0.04332149)
(0.00734432 0.041510008 0.043347761)
(0.0051876851 0.029320739 0.04441293)
(0.007146447 0.040391639 0.044896461)
(0.0050597792 0.028597821 0.04553673)
(0.0049408609 0.027925691 0.046691161)
(0.004831092 0.027305281 0.047874521)
(0.0066184248 0.03740726 0.04891837)
(0.004730633 0.026737479 0.049085069)
(0.0064769709 0.036607768 0.050075449)
(0.006349504 0.03588732 0.051284891)
(0.00623661 0.035249248 0.052541129)
(0.0061388081 0.034696471 0.053838391)
(0.0060565472 0.034231529 0.055170719)
(0.0059902049 0.033856578 0.056531981)
(0.0059400899 0.033573318 0.057915919)
(0.0059064291 0.033383071 0.059316158)
(0.005889378 0.033286698 0.060726281)
(0.0050756009 0.028687241 0.077360988)
(0.0049557281 0.02800972 0.076212227)
(0.0052042529 0.02941438 0.078477532)
(0.0058890148 0.033284649 0.062139802)
(0.0053414898 0.030190039 0.079560228)
(0.0059053432 0.033376928 0.063550211)
(0.005487123 0.031013159 0.080607481)
(0.005938286 0.03356313 0.06495101)
(0.0056409598 0.03188264 0.081617661)
(0.0059876922 0.03384237 0.06633579)
(0.0058028088 0.032797411 0.082589149)
(0.006053335 0.034213379 0.067698173)
(0.0061349119 0.034674451 0.069031879)
(0.0060501392 0.034195319 0.084044129)
(0.0062320489 0.035223469 0.070330791)
(0.0063442979 0.035857901 0.071588933)
(0.0062908982 0.035556082 0.085531972)
(0.006471145 0.036574841 0.072800517)
(0.0065249959 0.0368792 0.087051891)
(0.0066120052 0.03737098 0.073959976)
(0.0067662299 0.03824266 0.075061977)
(0.0067523462 0.03816418 0.088603117)
(0.0069331131 0.03918587 0.07610146)
(0.006972861 0.039410532 0.090184927)
(0.00728419 0.041170161 0.078215793)
(0.007186451 0.040617742 0.091796532)
(0.0073930291 0.041785318 0.093437187)
(0.0076221912 0.043080539 0.080395907)
(0.007592509 0.04291277 0.095106117)
(0.0079468479 0.04491549 0.082639761)
(0.0077848001 0.043999601 0.09680257)
(0.0079698162 0.045045309 0.098525777)
(0.0082578901 0.046673499 0.084945299)
(0.0081474688 0.046049401 0.100275)
(0.0083176699 0.047011379 0.1020495)
(0.00855505 0.04835305 0.087310471)
(0.0084803319 0.04793074 0.1038484)
(0.0088380594 0.049952611 0.089733221)
(0.0086353673 0.048806999 0.1056711)
(0.0087826867 0.049639639 0.1075167)
(0.0091066491 0.051470678 0.092211492)
(0.0089222034 0.050428189 0.1093845)
(0.0090537108 0.05117147 0.111272)
(0.00936055 0.052905731 0.094743237)
(0.0091769611 0.051868081 0.1131755)
(0.0095992209 0.054254688 0.097323328)
(0.0092919208 0.052517831 0.115094)
(0.0093985591 0.05312055 0.1170267)
(0.0098221954 0.055514939 0.099946417)
(0.0094968434 0.05367605 0.1189726)
(0.009586744 0.054184169 0.1209309)
(0.01002931 0.056685541 0.1026101)
(0.0096682301 0.05464473 0.1229006)
(0.0102204 0.057765622 0.105312)
(0.0097412709 0.055057552 0.124881)
(0.0098058339 0.055422459 0.126871)
(0.01039532 0.05875425 0.1080497)
(0.0098618893 0.055739291 0.1288698)
(0.0105539 0.059650529 0.1108207)
(0.0099094063 0.056007851 0.13087641)
(0.0099483524 0.056227971 0.13289011)
(0.01069598 0.06045356 0.1136228)
(0.0099786976 0.056399491 0.13490979)
(0.0108214 0.061162431 0.1164535)
(0.01000041 0.05652222 0.1369348)
(0.01089249 0.061564252 0.1179527)
(0.01095908 0.06194061 0.1194583)
(0.01001346 0.056595981 0.138964)
(0.01102116 0.062291451 0.1209701)
(0.0110787 0.062616691 0.1224876)
(0.01113171 0.062916271 0.1240106)
(0.01001782 0.056620609 0.14099669)
(0.01118016 0.063190132 0.1255386)
(0.01122405 0.063438177 0.1270715)
(0.01126336 0.063660368 0.12860879)
(0.01129807 0.063856557 0.13014971)
(0.01132817 0.064026669 0.13169339)
(0.01135364 0.064170673 0.1332397)
(0.0113745 0.064288542 0.1347882)
(0.01139073 0.064380251 0.1363384)
(0.01140232 0.064445801 0.1378902)
(0.01140928 0.06448514 0.139443)
(0.0114116 0.064498261 0.14099669)
(0.0114116 0.064498261 0.2340192)
(0.01141745 0.064531289 0.23523369)
(0.01143497 0.064630292 0.2364445)
(0.0114641 0.064794958 0.23764791)
(0.01150476 0.065024793 0.23884019)
(0.01155683 0.065319091 0.2400178)
(0.01203187 0.068003997 0.2496389)
(0.01228272 0.069421791 0.25999999)
(0.01209038 0.068334669 0.25090709)
(0.01214122 0.068622023 0.2521857)
(0.01218434 0.068865754 0.25347361)
(0.0122197 0.06906563 0.25476971)
(0.01224725 0.069221333 0.25607201)
(0.01226695 0.069332637 0.25737861)
(0.01227877 0.069399491 0.2586883)
(0.0048448248 0.02738289 0.075032867)
(0.004743082 0.026807841 0.073824532)
(0.0046396451 0.02622322 0.050321098)
(0.004650705 0.02628573 0.07258904)
(0.004568134 0.025819041 0.071332037)
(0.0045582899 0.0257634 0.051580869)
(0.0044955541 0.025408819 0.070056997)
(0.004486795 0.02535932 0.052861389)
(0.0044330331 0.025055449 0.068765923)
(0.0044254512 0.025012599 0.054157332)
(0.004380641 0.02475933 0.067460783)
(0.0043743211 0.024723619 0.055466469)
(0.0043384451 0.02452084 0.066143602)
(0.0043334588 0.024492661 0.056786809)
(0.0043065152 0.024340371 0.064816363)
(0.0043029161 0.024320031 0.058116361)
(0.0042849178 0.02421831 0.06348104)
(0.0042827441 0.02420602 0.0594531)
(0.0042737229 0.024155039 0.06213966)
(0.0042729969 0.02415093 0.060795039)
(7.1054269e-18 0.049593888 0.03056119)
(7.1054269e-18 0.049241561 0.031147851)
(0 0.048930179 0.031757239)
(0 0.039324701 0.031369392)
(0 0.038445029 0.032715689)
(0 0.048093472 0.033484239)
(0 0.03752961 0.034037929)
(0 0.047211591 0.035190079)
(0 0.03657908 0.035335138)
(0 0.046285339 0.036873221)
(0 0.04531556 0.03853216)
(0 0.044303101 0.040165409)
(0 0.043248881 0.04177149)
(-1.309922e-17 0.030560929 0.04332149)
(0 0.042153839 0.043348979)
(0 0.029777629 0.044410732)
(0 0.04101897 0.044896461)
(0 0.02904373 0.04553391)
(0 0.02836076 0.046688769)
(0 0.027730141 0.047873002)
(-8.3763439e-17 0.037988249 0.04891837)
(0 0.03717633 0.050075449)
(0 0.036444701 0.051284891)
(0 0.035796709 0.052541129)
(0 0.035235349 0.053838391)
(0 0.034763191 0.055170719)
(0 0.03438241 0.056531981)
(0 0.034094758 0.057915919)
(0 0.03390155 0.059316158)
(0 0.033803679 0.060726281)
(0 0.02913014 0.077356763)
(0 0.0298701 0.078475907)
(0 0.027153131 0.049084239)
(0 0.02722067 0.073816776)
(0 0.027804101 0.075024858)
(0 0.02844101 0.076205641)
(0 0.02669188 0.072583809)
(0 0.026630919 0.050320059)
(0 0.02621877 0.071328431)
(0 0.026164539 0.051577989)
(0 0.025802281 0.070053138)
(0 0.025754919 0.052855521)
(0 0.025443209 0.068760507)
(0 0.02540287 0.054150078)
(0 0.025142269 0.067453109)
(0 0.025109081 0.055459078)
(0 0.02490006 0.066133574)
(0 0.024874119 0.056779921)
(0 0.02471704 0.064804509)
(0 0.024698449 0.05810995)
(0 0.024593581 0.063468598)
(0 0.024582401 0.05944651)
(0 0.02452991 0.06212851)
(0 0.024526181 0.060786922)
(0 0.0338016 0.062139802)
(0 0.030659409 0.079560854)
(0 0.033895321 0.063550211)
(0 0.03149645 0.080609418)
(0 0.034084398 0.06495101)
(0 0.032379519 0.081619523)
(0 0.03436799 0.06633579)
(2.0394531e-18 0.0333068 0.082589149)
(0 0.034744758 0.067698173)
(0 0.03521299 0.069031879)
(0 0.0347226 0.084040128)
(0 0.035770539 0.070330791)
(0 0.036414821 0.071588933)
(0 0.036102381 0.085525423)
(0 0.037142891 0.072800517)
(0 0.037445288 0.08704412)
(0 0.037951399 0.073959976)
(0 0.038836621 0.075061977)
(0 0.038750522 0.088595323)
(2.4367091e-18 0.039794479 0.07610146)
(0 0.040017288 0.090178087)
(0 0.041807778 0.078213833)
(0 0.041244838 0.091791473)
(0 0.042432409 0.093434498)
(0 0.04374779 0.080393776)
(0 0.043579299 0.095106162)
(0 0.04561222 0.082638703)
(0 0.044684809 0.096805491)
(0 0.04574829 0.098531418)
(0 0.047398869 0.084945947)
(0 0.04676909 0.1002829)
(0 0.047746599 0.102059)
(0 0.049105652 0.08731281)
(0 0.04868022 0.1038585)
(0 0.050730579 0.089736544)
(0 0.049569421 0.1056803)
(0 0.050413631 0.1075235)
(0 0.052271768 0.092214309)
(0 0.051212359 0.1093868)
(0 0.051965121 0.1112691)
(0 0.053727418 0.094743237)
(0 0.05267147 0.1131694)
(0 0.055095851 0.097320408)
(0 0.053330969 0.1150864)
(0 0.053943232 0.117019)
(0 0.056375481 0.099942848)
(0 0.054507881 0.118966)
(0 0.055024572 0.1209264)
(0 0.057564821 0.1026075)
(0 0.055493001 0.1228988)
(0 0.058662489 0.1053112)
(0 0.05591289 0.1248821)
(0 0.056283969 0.1268751)
(0 0.059667211 0.108051)
(0 0.056606021 0.1288766)
(0 0.060577799 0.1108234)
(0 0.056878839 0.1308855)
(0 0.057102289 0.1329004)
(0 0.061393179 0.1136254)
(0 0.057276219 0.13492019)
(0 0.062112361 0.1164535)
(0 0.057400521 0.1369437)
(0 0.062819824 0.1191228)
(0 0.057475131 0.1389696)
(0 0.063445598 0.1218123)
(0 0.063989118 0.1245197)
(-3.6986819e-17 0.057500001 0.14099669)
(0 0.064449891 0.12724251)
(0 0.064827457 0.1299779)
(0 0.065121487 0.1327237)
(0 0.065331712 0.1354771)
(0 0.065457918 0.1382356)
(0 0.065499999 0.14099669)
(4.010718e-18 0.065499999 0.2340192)
(0 0.065533549 0.23523369)
(0 0.065634087 0.2364445)
(0 0.065801308 0.23764791)
(0 0.066034712 0.23884019)
(4.06176e-18 0.066333577 0.2400178)
(7.9875778e-18 0.069060192 0.2496389)
(-1.133726e-17 0.070500001 0.25999999)
(4.3144161e-18 0.070459761 0.25825161)
(4.3070289e-18 0.070339113 0.25650689)
(4.2947341e-18 0.070138328 0.25476971)
(4.2775582e-18 0.069857821 0.2530435)
(4.2555361e-18 0.069498189 0.25133201)
(0.0080290409 0.05693667 0.27500001)
(0.0060304129 0.057182901 0.27500001)
(0.0040243892 0.057358991 0.27500001)
(0.0020134291 0.057464741 0.27500001)
(0.0098443022 0.06980931 0.27500001)
(0.0073938109 0.070111208 0.27500001)
(0.0049342508 0.070327118 0.27500001)
(0.0024686391 0.070456773 0.27500001)
)


// edges:

417
(
(1 0)
(0 110)
(110 111)
(111 112)
(112 2)
(2 3)
(3 113)
(113 114)
(114 115)
(115 1)
(2 116)
(116 117)
(118 3)
(117 119)
(120 118)
(119 121)
(122 120)
(121 123)
(124 122)
(123 125)
(125 126)
(126 127)
(127 128)
(129 124)
(128 130)
(131 129)
(130 132)
(133 131)
(134 133)
(135 134)
(132 136)
(137 135)
(136 138)
(138 139)
(139 140)
(140 141)
(141 142)
(142 143)
(143 144)
(144 145)
(145 146)
(147 148)
(149 147)
(146 150)
(151 149)
(150 152)
(153 151)
(152 154)
(155 153)
(154 156)
(157 155)
(156 158)
(158 159)
(160 157)
(159 161)
(161 162)
(163 160)
(162 164)
(165 163)
(164 166)
(166 167)
(168 165)
(167 169)
(170 168)
(169 171)
(172 170)
(173 172)
(171 174)
(175 173)
(174 176)
(177 175)
(178 177)
(176 179)
(180 178)
(181 180)
(179 182)
(183 181)
(182 184)
(185 183)
(186 185)
(184 187)
(188 186)
(189 188)
(187 190)
(191 189)
(190 192)
(193 191)
(194 193)
(192 195)
(196 194)
(197 196)
(195 198)
(199 197)
(198 200)
(201 199)
(202 201)
(200 203)
(204 202)
(203 205)
(206 204)
(207 206)
(205 208)
(209 207)
(208 210)
(211 209)
(210 212)
(212 213)
(214 211)
(213 215)
(215 216)
(216 217)
(218 214)
(217 219)
(219 220)
(220 221)
(221 222)
(222 223)
(223 224)
(224 225)
(225 226)
(226 227)
(227 228)
(228 229)
(229 230)
(4 218)
(230 231)
(231 232)
(232 233)
(233 234)
(234 235)
(235 236)
(5 4)
(237 5)
(236 238)
(238 239)
(239 240)
(240 241)
(241 242)
(242 243)
(244 237)
(243 244)
(148 245)
(245 246)
(247 137)
(246 248)
(248 249)
(250 247)
(249 251)
(252 250)
(251 253)
(254 252)
(253 255)
(256 254)
(255 257)
(258 256)
(257 259)
(260 258)
(259 261)
(262 260)
(261 263)
(263 264)
(264 262)
(265 266)
(0 265)
(266 267)
(1 268)
(268 269)
(270 267)
(269 271)
(272 270)
(271 273)
(274 272)
(275 274)
(276 275)
(277 276)
(273 278)
(279 277)
(278 280)
(281 279)
(280 282)
(282 283)
(283 284)
(285 281)
(286 285)
(287 286)
(288 287)
(289 288)
(290 289)
(291 290)
(292 291)
(293 292)
(294 293)
(295 296)
(284 297)
(298 299)
(299 300)
(301 298)
(297 302)
(303 301)
(302 304)
(305 303)
(304 306)
(307 305)
(306 308)
(309 307)
(308 310)
(311 309)
(310 312)
(313 311)
(312 314)
(315 313)
(314 316)
(317 315)
(316 318)
(318 317)
(300 295)
(319 294)
(296 320)
(321 319)
(320 322)
(323 321)
(322 324)
(325 323)
(324 326)
(327 325)
(328 327)
(326 329)
(330 328)
(331 330)
(329 332)
(333 331)
(332 334)
(335 333)
(336 335)
(334 337)
(338 336)
(337 339)
(340 338)
(339 341)
(341 342)
(343 340)
(342 344)
(345 343)
(344 346)
(346 347)
(348 345)
(347 349)
(349 350)
(351 348)
(350 352)
(353 351)
(352 354)
(354 355)
(356 353)
(355 357)
(357 358)
(359 356)
(358 360)
(361 359)
(360 362)
(362 363)
(364 361)
(363 365)
(365 366)
(367 364)
(366 368)
(369 367)
(368 370)
(370 371)
(372 369)
(371 373)
(374 372)
(373 375)
(375 376)
(377 374)
(376 378)
(379 377)
(378 380)
(381 379)
(380 382)
(383 381)
(384 383)
(382 385)
(386 384)
(387 386)
(388 387)
(389 388)
(390 389)
(391 390)
(392 391)
(385 6)
(393 392)
(394 393)
(395 394)
(396 395)
(397 396)
(398 397)
(6 7)
(7 399)
(400 401)
(399 400)
(401 402)
(402 403)
(403 404)
(404 398)
(4 405)
(405 406)
(406 407)
(407 408)
(408 6)
(5 409)
(409 410)
(410 411)
(411 412)
(412 7)
(12 13)
(13 14)
(15 16)
(16 17)
(18 19)
(19 15)
(20 18)
(21 20)
(22 21)
(23 22)
(24 23)
(25 24)
(26 25)
(27 26)
(28 27)
(29 28)
(30 29)
(31 30)
(32 31)
(33 32)
(34 33)
(35 34)
(36 35)
(37 36)
(38 37)
(39 38)
(40 39)
(41 40)
(42 41)
(43 42)
(44 43)
(45 44)
(46 45)
(47 46)
(48 47)
(49 48)
(50 49)
(51 50)
(52 51)
(53 52)
(54 53)
(55 54)
(56 55)
(57 56)
(58 57)
(59 58)
(60 59)
(61 60)
(62 61)
(63 62)
(64 63)
(14 64)
(17 65)
(65 66)
(66 67)
(67 68)
(68 69)
(69 70)
(70 71)
(71 72)
(72 73)
(73 74)
(74 75)
(75 12)
(8 76)
(76 77)
(78 79)
(79 80)
(81 82)
(82 83)
(84 81)
(85 84)
(86 85)
(87 86)
(88 87)
(89 88)
(90 89)
(91 90)
(92 91)
(9 92)
(10 9)
(93 10)
(94 93)
(95 94)
(96 95)
(97 96)
(98 97)
(99 98)
(100 99)
(101 100)
(102 101)
(103 102)
(104 103)
(105 104)
(106 105)
(107 106)
(77 107)
(83 78)
(80 108)
(108 109)
(109 11)
(11 8)
)

// * * * * * * * * * * * * * * * * * * * * * * * * * * * * * * * * * * * * * //


// ************************************************************************* //
