/*--------------------------------*- C++ -*----------------------------------*\
| =========                 |                                                 |
| \\      /  F ield         | OpenFOAM: The Open Source CFD Toolbox           |
|  \\    /   O peration     | Version:  2206                                  |
|   \\  /    A nd           | Website:  www.openfoam.com                      |
|    \\/     M anipulation  |                                                 |
\*---------------------------------------------------------------------------*/
FoamFile
{
    version     2.0;
    format      ascii;
    arch        "LSB;label=32;scalar=64";
    class       featureEdgeMesh;
    location    "constant/triSurface";
    object      internal.eMesh;
}
// * * * * * * * * * * * * * * * * * * * * * * * * * * * * * * * * * * * * * //


// points:

110
(
(0.00074088451 0.066355228 0.27500001)
(0.00031726059 0.06599924 0.27500001)
(0.01048796 0.065161362 0.27500001)
(0.01031129 0.065393344 0.27500001)
(0.00049842859 0.064810261 0.27500001)
(0.0003048779 0.064999282 0.27500001)
(0.00070947129 0.064642973 0.27500001)
(0.01033653 0.064172857 0.27500001)
(0.0100948 0.064005271 0.27500001)
(0.001066343 0.045323599 0.029999999)
(0.0023953251 0.045272838 0.029999999)
(0.0037222451 0.0451831 0.029999999)
(0.005045963 0.04505448 0.029999999)
(0.006365336 0.044887081 0.030000011)
(0.0064162351 0.044876799 0.029999999)
(0.0064656301 0.04486078 0.029999999)
(0.006512892 0.044839311 0.029999999)
(0.0065575088 0.044812739 0.029999999)
(0.0065988512 0.04478161 0.029999999)
(0.0066366368 0.044746298 0.029999999)
(0.006670665 0.044707172 0.029999999)
(0.0067006699 0.044664681 0.029999999)
(0.0067263138 0.044619542 0.029999999)
(0.0067475461 0.044572171 0.029999999)
(0.006764337 0.04452296 0.029999999)
(0.0067766551 0.044472311 0.029999999)
(0.0067877718 0.044368621 0.029999999)
(0.0067809429 0.044264659 0.029999999)
(0.006427736 0.041958991 0.029999999)
(0.006403435 0.04185655 0.029999999)
(0.0059036319 0.041461959 0.029999999)
(0.0058515952 0.041466098 0.029999999)
(0.0059556989 0.041464049 0.029999999)
(0.0060073012 0.04147223 0.029999999)
(0.0060577379 0.04148623 0.029999999)
(0.0061061941 0.041505668 0.029999999)
(0.0061523588 0.041530188 0.029999999)
(0.0061959228 0.04155945 0.029999999)
(0.0062363511 0.04159287 0.029999999)
(0.0062734 0.041629981 0.029999999)
(0.006306943 0.041670371 0.029999999)
(0.0063629611 0.041759402 0.029999999)
(0.0097050248 0.065788008 0.27500001)
(0.0075863702 0.066065863 0.27500001)
(0.0054598809 0.066275477 0.27500001)
(0.003327756 0.066416681 0.27500001)
(0.001192195 0.066489317 0.27500001)
(0.0010909369 0.066483557 0.27500001)
(0.00052890892 0.066198662 0.27500001)
(0.0009783695 0.066460319 0.27500001)
(0.00085735059 0.066416241 0.27500001)
(0.0003401369 0.066021651 0.27500001)
(0.010469 0.06518729 0.27500001)
(0.01012787 0.06558226 0.27500001)
(0.01002304 0.065661371 0.27500001)
(0.0099109877 0.065724529 0.27500001)
(0.0098038707 0.065765813 0.27500001)
(0.00055450149 0.04477758 0.029999999)
(0.00056478521 0.044881329 0.029999999)
(0.001014575 0.045321818 0.029999999)
(0.00096342748 0.045314152 0.029999999)
(0.00091336871 0.045300771 0.029999999)
(0.0008649847 0.045281898 0.029999999)
(0.00081906648 0.045257978 0.029999999)
(0.00077592803 0.045229319 0.029999999)
(0.00059271482 0.044981752 0.029999999)
(0.00061316951 0.04502973 0.029999999)
(0.00063784473 0.045075621 0.029999999)
(0.00066658761 0.045118921 0.029999999)
(0.00069928978 0.045159239 0.029999999)
(0.00073584361 0.045196231 0.029999999)
(0.0052956739 0.064282238 0.27500001)
(0.0073554739 0.064079218 0.27500001)
(0.0032304211 0.064419053 0.27500001)
(0.001161841 0.064489543 0.27500001)
(0.0094077 0.063810229 0.27500001)
(0.001060899 0.064498886 0.27500001)
(0.00094773312 0.06452658 0.27500001)
(0.00082585571 0.064576238 0.27500001)
(0.00030710571 0.064997062 0.27500001)
(0.01031064 0.064154342 0.27500001)
(0.0095056137 0.06380295 0.27500001)
(0.0096177356 0.063810691 0.27500001)
(0.0097419601 0.063837416 0.27500001)
(0.0098645277 0.063881263 0.27500001)
(0.0046468731 0.041618329 0.029999999)
(0.003438242 0.04173556 0.029999999)
(0.0022267201 0.04181771 0.029999999)
(0.001013328 0.041864689 0.029999999)
(0.00096120627 0.04186913 0.029999999)
(0.0009099638 0.041879792 0.029999999)
(0.00086033851 0.041896362 0.029999999)
(0.000812907 0.041918471 0.029999999)
(0.00076833449 0.041945599 0.029999999)
(0.00072688452 0.041977331 0.029999999)
(0.00068877707 0.04201328 0.029999999)
(0.00065439311 0.042052861 0.029999999)
(0.00062395958 0.042095479 0.029999999)
(0.00059752801 0.042140771 0.029999999)
(0.00055687828 0.042237651 0.029999999)
(0.0005328228 0.042340219 0.029999999)
(0.00052561873 0.042445209 0.029999999)
(0.00090544199 0.033217032 0.042272821)
(0.0008869645 0.031746499 0.04422421)
(0.0009242341 0.034714092 0.040286198)
(0.0009624667 0.03776478 0.036237858)
(0.00076996139 0.066370733 0.2749978)
(0.01017366 0.065532267 0.27499181)
(0.00066175708 0.064679429 0.27499631)
(0.0099268807 0.063916527 0.27499241)
)


// edges:

111
(
(102 103)
(104 102)
(105 104)
(0 106)
(107 3)
(108 4)
(6 108)
(8 109)
(105 103)
(9 10)
(10 11)
(11 12)
(12 13)
(13 14)
(14 15)
(15 16)
(16 17)
(17 18)
(18 19)
(19 20)
(20 21)
(21 22)
(22 23)
(23 24)
(24 25)
(25 26)
(26 27)
(27 28)
(28 29)
(30 31)
(32 30)
(33 32)
(34 33)
(35 34)
(36 35)
(37 36)
(38 37)
(39 38)
(40 39)
(29 41)
(41 40)
(42 43)
(43 44)
(44 45)
(45 46)
(46 47)
(0 48)
(47 49)
(49 50)
(50 0)
(48 51)
(51 1)
(2 52)
(52 3)
(3 53)
(53 54)
(54 55)
(55 56)
(56 42)
(57 58)
(59 9)
(60 59)
(61 60)
(62 61)
(63 62)
(64 63)
(58 65)
(65 66)
(66 67)
(67 68)
(68 69)
(69 70)
(70 64)
(71 72)
(73 71)
(74 73)
(72 75)
(76 74)
(77 76)
(78 77)
(79 4)
(5 79)
(4 6)
(6 78)
(80 7)
(75 81)
(81 82)
(82 83)
(83 84)
(84 8)
(8 80)
(31 85)
(85 86)
(86 87)
(87 88)
(88 89)
(89 90)
(90 91)
(91 92)
(92 93)
(93 94)
(94 95)
(95 96)
(96 97)
(97 98)
(98 99)
(100 101)
(99 100)
(101 57)
(1 5)
(7 2)
)

// * * * * * * * * * * * * * * * * * * * * * * * * * * * * * * * * * * * * * //


// ************************************************************************* //
