/*--------------------------------*- C++ -*----------------------------------*\
| =========                 |                                                 |
| \\      /  F ield         | OpenFOAM: The Open Source CFD Toolbox           |
|  \\    /   O peration     | Version:  v2206                                 |
|   \\  /    A nd           | Website:  www.openfoam.com                      |
|    \\/     M anipulation  |                                                 |
\*---------------------------------------------------------------------------*/
FoamFile
{
    version     2.0;
    format      ascii;
    class       volScalarField;
    object      omega;
}
// * * * * * * * * * * * * * * * * * * * * * * * * * * * * * * * * * * * * * //

omegaInlet      107.6238;

dimensions      [0 0 -1 0 0 0 0];

internalField   uniform $omegaInlet;

boundaryField
{
    inlet
    {
        type            fixedValue;
        value           uniform $omegaInlet;
    }

    outlet
    {
        type            inletOutlet;
        inletValue      uniform $omegaInlet;
        value           uniform $omegaInlet;
    }

    walls
    {
        type            fixedValue;
        value           uniform 10e9;
    }

    #includeEtc "caseDicts/setConstraintTypes"
}

// ************************************************************************* //
