/*--------------------------------*- C++ -*----------------------------------*\
| =========                 |                                                 |
| \\      /  F ield         | OpenFOAM: The Open Source CFD Toolbox           |
|  \\    /   O peration     | Version:  2206                                  |
|   \\  /    A nd           | Website:  www.openfoam.com                      |
|    \\/     M anipulation  |                                                 |
\*---------------------------------------------------------------------------*/
FoamFile
{
    version     2.0;
    format      ascii;
    arch        "LSB;label=32;scalar=64";
    class       polyBoundaryMesh;
    location    "constant/polyMesh";
    object      boundary;
}
// * * * * * * * * * * * * * * * * * * * * * * * * * * * * * * * * * * * * * //

5
(
    inlet
    {
        type            patch;
        nFaces          0;
        startFace       108986;
    }
    outlet
    {
        type            patch;
        nFaces          0;
        startFace       108986;
    }
    internal
    {
        type            wall;
        inGroups        1(wall);
        nFaces          8370;
        startFace       108986;
    }
    procBoundary7to4
    {
        type            processor;
        inGroups        1(processor);
        nFaces          473;
        startFace       117356;
        matchTolerance  0.0001;
        transform       unknown;
        myProcNo        7;
        neighbProcNo    4;
    }
    procBoundary7to6
    {
        type            processor;
        inGroups        1(processor);
        nFaces          251;
        startFace       117829;
        matchTolerance  0.0001;
        transform       unknown;
        myProcNo        7;
        neighbProcNo    6;
    }
)

// ************************************************************************* //
