/*--------------------------------*- C++ -*----------------------------------*\
| =========                 |                                                 |
| \\      /  F ield         | OpenFOAM: The Open Source CFD Toolbox           |
|  \\    /   O peration     | Version:  v2206                                 |
|   \\  /    A nd           | Website:  www.openfoam.com                      |
|    \\/     M anipulation  |                                                 |
\*---------------------------------------------------------------------------*/
FoamFile
{
    version     2.0;
    format      ascii;
    class       dictionary;
    object      fvSolution;
}
// * * * * * * * * * * * * * * * * * * * * * * * * * * * * * * * * * * * * * //


solvers
{
    rho
    {
        solver          PCG;
        preconditioner  DIC;
        tolerance       1e-7;
        relTol          0;
    }

    p_rgh
    {
        solver           GAMG;
        tolerance        1e-7;
        relTol           0.001;
        smoother         GaussSeidel;
    }

    "(U|h|k|epsilon|Ii)"
    {
        solver           PBiCGStab;
        preconditioner   DILU;
        tolerance        1e-7;
        relTol           0.001;
    }
}

SIMPLE
{
    momentumPredictor yes;
    nNonOrthogonalCorrectors 2;/*
    pRefCell        0;
    pRefValue       100000;
    rhoMin          0.2;
    rhoMax          2;*/
}

relaxationFactors
{
    fields
    {
        rho             1.0;
        p_rgh           0.7;
    }
    equations
    {
        U               0.5;
        h               0.9;
        //"(k|epsilon|omega)" 0.7;
        //"ILambda.*"     0.7;
        //qr              0.7;
    }
}


// ************************************************************************* //
