/*--------------------------------*- C++ -*----------------------------------*\
| =========                 |                                                 |
| \\      /  F ield         | OpenFOAM: The Open Source CFD Toolbox           |
|  \\    /   O peration     | Version:  v2206                                 |
|   \\  /    A nd           | Website:  www.openfoam.com                      |
|    \\/     M anipulation  |                                                 |
\*---------------------------------------------------------------------------*/
FoamFile
{
    version     2.0;
    format      ascii;
    class       dictionary;
    object      blockMeshDict;
}
// * * * * * * * * * * * * * * * * * * * * * * * * * * * * * * * * * * * * * //

backgroundMesh
{
    xMin    -0.00165;
    xMax    0.013;
    yMin    0.022;
    yMax    0.071;
    zMin    0.032;
    zMax    0.274;
    zCells  500;
    xCells  #calc "round($zCells * (($xMax - $xMin)/($zMax - $zMin)))";
    yCells  #calc "round($zCells * (($yMax - $yMin)/($zMax - $zMin)))";
}

scale   1;

vertices
(
    ($:backgroundMesh.xMin $:backgroundMesh.yMin $:backgroundMesh.zMin)
    ($:backgroundMesh.xMax $:backgroundMesh.yMin $:backgroundMesh.zMin)
    ($:backgroundMesh.xMax $:backgroundMesh.yMax $:backgroundMesh.zMin)
    ($:backgroundMesh.xMin $:backgroundMesh.yMax $:backgroundMesh.zMin)

    ($:backgroundMesh.xMin $:backgroundMesh.yMin $:backgroundMesh.zMax)
    ($:backgroundMesh.xMax $:backgroundMesh.yMin $:backgroundMesh.zMax)
    ($:backgroundMesh.xMax $:backgroundMesh.yMax $:backgroundMesh.zMax)
    ($:backgroundMesh.xMin $:backgroundMesh.yMax $:backgroundMesh.zMax)
);

blocks
(
    hex (0 1 2 3 4 5 6 7)
    (
        $:backgroundMesh.xCells
        $:backgroundMesh.yCells
        $:backgroundMesh.zCells
    )
    simpleGrading (1 1 1)
);

edges
(
);

boundary
(
//  Uncomment below to define patches in background mesh
/*
    left
    {
        type patch;
        faces
        (
            (0 3 7 4)
        );
    }

    right
    {
        type patch;
        faces
        (
            (1 5 6 2)
        );
    }
*/
    inlet
    {
        type patch;
        faces
        (
            (0 1 2 3)
        );
    }

    outlet
    {
        type patch;
        faces
        (
            (4 7 6 5)
        );
    }
/*
    back
    {
        type patch;
        faces
        (
            (0 4 5 1)
        );
    }

    front
    {
        type patch;
        faces
        (
            (3 2 6 7)
        );
    }
*/
);

mergePatchPairs
(
);

// ************************************************************************* //
